/*--------------------------------*- C++ -*----------------------------------*\
| =========                 |                                                 |
| \\      /  F ield         | OpenFOAM: The Open Source CFD Toolbox           |
|  \\    /   O peration     | Version:  v1912                                 |
|   \\  /    A nd           | Website:  www.openfoam.com                      |
|    \\/     M anipulation  |                                                 |
\*---------------------------------------------------------------------------*/
FoamFile
{
    version     2.0;
    format      ascii;
    class       dictionary;
    location    "system";
    object      fvSolution;
}
// * * * * * * * * * * * * * * * * * * * * * * * * * * * * * * * * * * * * * //

solvers
{
    "alpha.*"
    {
        nAlphaCorr      3;
        nAlphaSubCycles 3;
        cAlpha          1;

        solver          smoothSolver;
        smoother        GaussSeidel;
        tolerance       1e-06;
        relTol          0.1;
        nSweeps         1;
    }

    "pcorr.*"
    {
        solver          GAMG;
        smoother  		DIC;
        tolerance       1e-10;
        relTol          0.1;
    }

    p_rgh
    {
        solver          GAMG;
        smoother  		DIC;
        tolerance       1e-07;
        relTol          0.1;
    }

    p_rghFinal
    {
        solver          GAMG;
        smoother  		DIC;
        tolerance       1e-07;
        relTol          0.1;
    }

    U
    {
        solver          smoothSolver;
        smoother        symGaussSeidel;
        tolerance       1e-06;
        relTol          0.1;
    }
	
	UFinal
    {
        $U;
        relTol          0;
    }
}

PIMPLE
{
    momentumPredictor   yes;
    nOuterCorrectors    1;
    nCorrectors         2;
    nNonOrthogonalCorrectors 0;

    pRefValue           0;
    pRefCell            0;
}

relaxationFactors
{
equations
{
	".*" 1.0;
}
}


// ************************************************************************* //
