/*--------------------------------*- C++ -*----------------------------------*\
| =========                 |                                                 |
| \\      /  F ield         | OpenFOAM: The Open Source CFD Toolbox           |
|  \\    /   O peration     | Version:  v1912                                 |
|   \\  /    A nd           | Website:  www.openfoam.com                      |
|    \\/     M anipulation  |                                                 |
\*---------------------------------------------------------------------------*/
FoamFile
{
    version     2.0;
    format      ascii;
    class       dictionary;
    location    "system";
    object      setFieldsDict;
}
// * * * * * * * * * * * * * * * * * * * * * * * * * * * * * * * * * * * * * //

defaultFieldValues
(
    volScalarFieldValue alpha.air 1
    volScalarFieldValue alpha.salt 0
    volScalarFieldValue alpha.water 0
	volVectorFieldValue U (0 0 0)
);

regions
(
    boxToCell
    {
        box (0 -1 0) (0.3 1 0.2);
        fieldValues
        (
            volScalarFieldValue alpha.air 0
            volScalarFieldValue alpha.salt 1
            volScalarFieldValue alpha.water 0
        );
    }
    boxToCell
    {
        box (0.3 -1 0) (3.0 1 0.2);
        fieldValues
        (
            volScalarFieldValue alpha.air 0
            volScalarFieldValue alpha.salt 0
            volScalarFieldValue alpha.water 1
        );
    }
);


// ************************************************************************* //
