/*--------------------------------*- C++ -*----------------------------------*\
| =========                 |                                                 |
| \\      /  F ield         | OpenFOAM: The Open Source CFD Toolbox           |
|  \\    /   O peration     | Version:  v1912                                 |
|   \\  /    A nd           | Website:  www.openfoam.com                      |
|    \\/     M anipulation  |                                                 |
\*---------------------------------------------------------------------------*/
FoamFile
{
    version     2.0;
    format      ascii;
    class       dictionary;
    location    "constant";
    object      transportProperties;
}
// * * * * * * * * * * * * * * * * * * * * * * * * * * * * * * * * * * * * * //

phases (air salt water);

air
{
    transportModel  Newtonian;
    nu              nu [0 2 -1 0 0 0 0] 1.48e-05;
    rho             rho [1 -3 0 0 0 0 0] 1.2;
}

salt
{
    transportModel  Newtonian;
    nu              nu [0 2 -1 0 0 0 0] 1e-6;
    rho             rho [1 -3 0 0 0 0 0] 1004.5;
}

water
{
    transportModel  Newtonian;
    nu              nu [0 2 -1 0 0 0 0] 1e-6;
    rho             rho [1 -3 0 0 0 0 0] 986.4;
}

// Surface tension coefficients
sigma12         sigma12 [1 0 -2 0 0 0 0] 0.076;
sigma13         sigma13 [1 0 -2 0 0 0 0] 0.076;

// Diffusivity between miscible phases
D23             D23 [0 2 -1 0 0 0 0] 1.67e-09;

// ************************************************************************* //
